/*--------------------------------*- C++ -*----------------------------------*\
| =========                 |                                                 |
| \\      /  F ield         | OpenFOAM: The Open Source CFD Toolbox           |
|  \\    /   O peration     | Version:  2.3.0                                 |
|   \\  /    A nd           | Web:      www.OpenFOAM.org                      |
|    \\/     M anipulation  |                                                 |
\*---------------------------------------------------------------------------*/
FoamFile
{
    version     2.0;
    format      ascii;
    class       polyBoundaryMesh;
    location    "constant/polyMesh";
    object      boundary;
}
// * * * * * * * * * * * * * * * * * * * * * * * * * * * * * * * * * * * * * //

9
(
    waterInlet
    {
        type            patch;
        nFaces          0;
        startFace       3122;
    }
    oilInlet
    {
        type            patch;
        nFaces          0;
        startFace       3122;
    }
    mainReactorOutlet
    {
        type            patch;
        nFaces          0;
        startFace       3122;
    }
    front
    {
        type            symmetry;
        inGroups        1(symmetry);
        nFaces          1612;
        startFace       3122;
    }
    back
    {
        type            symmetry;
        inGroups        1(symmetry);
        nFaces          1612;
        startFace       4734;
    }
    wall
    {
        type            patch;
        nFaces          0;
        startFace       6346;
    }
    defaultFaces
    {
        type            empty;
        inGroups        1(empty);
        nFaces          21;
        startFace       6346;
    }
    procBoundary4to3
    {
        type            processor;
        inGroups        1(processor);
        nFaces          81;
        startFace       6367;
        matchTolerance  0.0001;
        transform       unknown;
        myProcNo        4;
        neighbProcNo    3;
    }
    procBoundary4to5
    {
        type            processor;
        inGroups        1(processor);
        nFaces          81;
        startFace       6448;
        matchTolerance  0.0001;
        transform       unknown;
        myProcNo        4;
        neighbProcNo    5;
    }
)

// ************************************************************************* //
