/*--------------------------------*- C++ -*----------------------------------*\
| =========                 |                                                 |
| \\      /  F ield         | OpenFOAM: The Open Source CFD Toolbox           |
|  \\    /   O peration     | Version:  3.0.0                                 |
|   \\  /    A nd           | Web:      www.OpenFOAM.org                      |
|    \\/     M anipulation  |                                                 |
\*---------------------------------------------------------------------------*/
FoamFile
{
    version     2.0;
    format      ascii;
    class       polyBoundaryMesh;
    location    "constant/polyMesh";
    object      boundary;
}
// * * * * * * * * * * * * * * * * * * * * * * * * * * * * * * * * * * * * * //

4
(
    inlet
    {
        type            patch;
        nFaces          10;
        startFace       489339;
    }
    outlet
    {
        type            patch;
        nFaces          10;
        startFace       489349;
    }
    frontAndBack
    {
        type            empty;
        inGroups        1(empty);
        nFaces          490500;
        startFace       489359;
    }
    defaultFaces
    {
        type            wall;
        inGroups        1(wall);
        nFaces          2302;
        startFace       979859;
    }
)

// ************************************************************************* //
