/*--------------------------------*- C++ -*----------------------------------*\
| =========                 |                                                 |
| \\      /  F ield         | OpenFOAM: The Open Source CFD Toolbox           |
|  \\    /   O peration     | Version:  2.3.0                                 |
|   \\  /    A nd           | Web:      www.OpenFOAM.org                      |
|    \\/     M anipulation  |                                                 |
\*---------------------------------------------------------------------------*/
FoamFile
{
    version     2.0;
    format      ascii;
    class       dictionary;
    object      blockMeshDict;
}
// * * * * * * * * * * * * * * * * * * * * * * * * * * * * * * * * * * * * * //

meshParameters
{
    dWater     3.50;         // Diameter of water inlet in mm
    dOil       2.25;         // Diameter of each oil inlet in mm
    l1         8;            // Distance of left oil inlet left edge from left end of reactor
    l2         8;            // Distance of left oil inlet right edge from left end water inlet
    l3         8;            // Distance of right oil inlet left edge from right end of water inlet
    l4         8;            // Distance of right oil inlet right edge from right end of reactor 
    resolution 0.25;         // Size of grid cell, mm
    dReactor   40;           // Reactor diameter, mm
    lReactor   240;          // Reactor length, mm
    oilRun     3;            // L/D ratio of oil runners
    waterRun   3;            // L/D ratio of water runner
}

convertToMeters 0.001;

nl1        #calc "$:meshParameters.l1/$:meshParameters.resolution";
nl2        #calc "$:meshParameters.l2/$:meshParameters.resolution";
nl3        #calc "$:meshParameters.l3/$:meshParameters.resolution";
nl4        #calc "$:meshParameters.l4/$:meshParameters.resolution";
ndOil      #calc "$:meshParameters.dOil/$:meshParameters.resolution";
ndWater    #calc "$:meshParameters.dWater/$:meshParameters.resolution";
ndReactor  #calc "$nl1 +$nl2 + $nl3 + $nl4 + 2*$ndOil +$ndWater";
nlReactor  #calc "$:meshParameters.lReactor/$:meshParameters.resolution";
nlOil      #calc "$:meshParameters.oilRun*$:meshParameters.dOil/$:meshParameters.resolution";
nlWater    #calc "$:meshParameters.waterRun*$:meshParameters.dWater/$:meshParameters.resolution";

x1  #calc "-20 + $:meshParameters.l1";
x4  #calc "$x1 + $:meshParameters.dOil";
x5  #calc "$x4 + $:meshParameters.l2";
x8  #calc "$x5 + $:meshParameters.dWater";
x9  #calc "$x8 + $:meshParameters.l3";
x12 #calc "$x9 + $:meshParameters.dOil";
y2  #calc "-1*$:meshParameters.oilRun*$:meshParameters.dOil";
y6  #calc "-1*$:meshParameters.waterRun*$:meshParameters.dWater";
y14 #calc "0 + $:meshParameters.lReactor";

vertices
(
    (-20  0    0)  //0
    ($x1  0    0)  //1
    ($x1  $y2  0)  //2
    ($x4  $y2  0)  //3
    ($x4  0    0)  //4
    ($x5  0    0)  //5
    ($x5  $y6  0)  //6
    ($x8  $y6  0)  //7
    ($x8  0    0)  //8
    ($x9  0    0)  //9
    ($x9  $y2  0)  //10
    ($x12 $y2  0)  //11
    ($x12 0    0)  //12
    (20   0    0)  //13
    (20   $y14 0)  //14
    ($x12 $y14 0)  //15
    ($x9  $y14 0)  //16
    ($x8  $y14 0)  //17
    ($x5  $y14 0)  //18
    ($x4  $y14 0)  //19
    ($x1  $y14 0)  //20
    (-20    $y14 0)  //21
    // Extrude in +z
    (-20  0    1)  //22
    ($x1  0    1)  //23
    ($x1  $y2  1)  //24
    ($x4  $y2  1)  //25
    ($x4  0    1)  //26
    ($x5  0    1)  //27
    ($x5  $y6  1)  //28
    ($x8  $y6  1)  //29
    ($x8  0    1)  //30
    ($x9  0    1)  //31
    ($x9  $y2  1)  //32
    ($x12 $y2  1)  //33
    ($x12 0    1)  //34
    (20   0    1)  //35
    (20   $y14 1)  //36
    ($x12 $y14 1)  //37
    ($x9  $y14 1)  //38
    ($x8  $y14 1)  //39
    ($x5  $y14 1)  //40
    ($x4  $y14 1)  //41
    ($x1  $y14 1)  //42
    (-20  $y14 1)  //43
);

blocks
(
    //water inlet block
    hex (6 7 8 5 28 29 30 27)     ($ndWater $nlWater 1)   simpleGrading (1 1 1)

    // oil inlet block left
    hex (2 3 4 1 24 25 26 23)     ($ndOil $nlOil 1)        simpleGrading (1 1 1)

    // oil inlet block right
    hex (10 11 12 9 32 33 34 31)  ($ndOil $nlOil 1)        simpleGrading (1 1 1)
 
    // main reactor block 1 - from left
    hex (0 1 20 21 22 23 42 43)   ($nl1 $nlReactor 1)      simpleGrading (1 1 1)

    // main reactor block 2
    hex (1 4 19 20 23 26 41 42)   ($ndOil $nlReactor 1)    simpleGrading (1 1 1)

    // main reactor block 3
    hex (4 5 18 19 26 27 40 41)   ($nl2 $nlReactor 1)      simpleGrading (1 1 1)

    // main reactor block 4
    hex (5 8 17 18 27 30 39 40)   ($ndWater $nlReactor 1)  simpleGrading (1 1 1)

    // main reactor block 5
    hex (8 9 16 17 30 31 38 39)   ($nl3 $nlReactor 1)      simpleGrading (1 1 1)

    // main reactor block 6
    hex (9 12 15 16 31 34 37 38)  ($ndOil $nlReactor 1)    simpleGrading (1 1 1)

    // main reactor block 7
    hex (12 13 14 15 34 35 36 37) ($nl4 $nlReactor 1)      simpleGrading (1 1 1)
);

edges
(
);

boundary
(
    waterInlet
    {
        type patch;
        faces
        (
            (6 7 29 28)
        );
    }

    oilInletLeft
    {
        type patch;
        faces
        (
            (2 3 25 24)
        );
    }

    oilInletRight
    {
        type patch;
        faces
        (
            (10 11 33 32)
        );
    }

    mainReactorOutlet
    {
        type patch;
        faces
        (
            (43 42 20 21)
            (42 41 19 20)
            (41 40 18 19)
            (40 39 17 18)
            (39 38 16 17)
            (38 37 15 16)
            (37 36 14 15)
        );
    }

    wall
    {
       type patch;
       faces
       (
           (43 21 0 22)
           (23 22 0 1)
           (23 1 2 24)
           (25 3 4 26)
           (27 26 4 5)
           (27 5 6 28)
           (29 7 8 30)
           (31 30 8 9)
           (31 9 10 32)
           (33 11 12 34)
           (35 34 12 13)
           (35 13 14 36)
       );
     }

    // Default faces: frontAndBack
);

mergePatchPairs
(
);

// ************************************************************************* //
