/*--------------------------------*- C++ -*----------------------------------*\
| =========                 |                                                 |
| \\      /  F ield         | OpenFOAM: The Open Source CFD Toolbox           |
|  \\    /   O peration     | Version:  2.3.x                                 |
|   \\  /    A nd           | Web:      www.OpenFOAM.org                      |
|    \\/     M anipulation  |                                                 |
\*---------------------------------------------------------------------------*/
FoamFile
{
    version     2.0;
    format      ascii;
    class       dictionary;
    object      extrudeProperties;
}
// * * * * * * * * * * * * * * * * * * * * * * * * * * * * * * * * * * * * * //

constructFrom patch;
sourceCase "$FOAM_CASE";

sourcePatches (front);
exposedPatchName back;

extrudeModel        wedge;

nLayers             1;
expansionRatio      1.0;


wedgeCoeffs
{
    axisPt          (0 0 1);
    axis            (0 1 0);
    angle           5;
}

flipNormals false;
mergeFaces  false;

// * * * * * * * * * * * * * * * * * * * * * * * * * * * * * * * * * * * * * //
