
/*--------------------------------*- C++ -*----------------------------------*\
| =========                 |                                                 |
| \\      /  F ield         | OpenFOAM: The Open Source CFD Toolbox           |
|  \\    /   O peration     | Version:  1.7.1                                 |
|   \\  /    A nd           | Web:      www.OpenFOAM.com                      |
|    \\/     M anipulation  |                                                 |
\*---------------------------------------------------------------------------*/
FoamFile
{
    version     2.0;
    format      ascii;
    class       volScalarField;
    object      alpha1;
}
// * * * * * * * * * * * * * * * * * * * * * * * * * * * * * * * * * * * * * //

dimensions      [0 0 0 0 0 0 0];

internalField   uniform 1;

boundaryField
{
    waterInlet
    {
         type            zeroGradient;
    }

    oilInlet
    {
        type            zeroGradient;
    }

    oilInletRight
    {
        type            zeroGradient;
    }

    mainReactorOutlet
    {
        type            zeroGradient;
    }

   wall
    {
        type            zeroGradient;
    }

    frontAndBack
    {
        type            empty;
    }
}


// ************************************************************************* //
