/*--------------------------------*- C++ -*----------------------------------*\
| =========                 |                                                 |
| \\      /  F ield         | OpenFOAM: The Open Source CFD Toolbox           |
|  \\    /   O peration     | Version:  2.3.0                                 |
|   \\  /    A nd           | Web:      www.OpenFOAM.org                      |
|    \\/     M anipulation  |                                                 |
\*---------------------------------------------------------------------------*/
FoamFile
{
    version     2.0;
    format      ascii;
    class       polyBoundaryMesh;
    location    "constant/polyMesh";
    object      boundary;
}
// * * * * * * * * * * * * * * * * * * * * * * * * * * * * * * * * * * * * * //

9
(
    waterInlet
    {
        type            patch;
        nFaces          0;
        startFace       3123;
    }
    oilInlet
    {
        type            patch;
        nFaces          0;
        startFace       3123;
    }
    mainReactorOutlet
    {
        type            patch;
        nFaces          0;
        startFace       3123;
    }
    front
    {
        type            symmetry;
        inGroups        1(symmetry);
        nFaces          1612;
        startFace       3123;
    }
    back
    {
        type            symmetry;
        inGroups        1(symmetry);
        nFaces          1612;
        startFace       4735;
    }
    wall
    {
        type            patch;
        nFaces          0;
        startFace       6347;
    }
    defaultFaces
    {
        type            empty;
        inGroups        1(empty);
        nFaces          20;
        startFace       6347;
    }
    procBoundary1to0
    {
        type            processor;
        inGroups        1(processor);
        nFaces          81;
        startFace       6367;
        matchTolerance  0.0001;
        transform       unknown;
        myProcNo        1;
        neighbProcNo    0;
    }
    procBoundary1to2
    {
        type            processor;
        inGroups        1(processor);
        nFaces          81;
        startFace       6448;
        matchTolerance  0.0001;
        transform       unknown;
        myProcNo        1;
        neighbProcNo    2;
    }
)

// ************************************************************************* //
