/*--------------------------------*- C++ -*----------------------------------*\
| =========                 |                                                 |
| \\      /  F ield         | OpenFOAM: The Open Source CFD Toolbox           |
|  \\    /   O peration     | Version:  2.3.0                                 |
|   \\  /    A nd           | Web:      www.OpenFOAM.org                      |
|    \\/     M anipulation  |                                                 |
\*---------------------------------------------------------------------------*/
FoamFile
{
    version     2.0;
    format      ascii;
    class       polyBoundaryMesh;
    location    "constant/polyMesh";
    object      boundary;
}
// * * * * * * * * * * * * * * * * * * * * * * * * * * * * * * * * * * * * * //

9
(
    waterInlet
    {
        type            patch;
        nFaces          0;
        startFace       3120;
    }
    oilInlet
    {
        type            patch;
        nFaces          0;
        startFace       3120;
    }
    mainReactorOutlet
    {
        type            patch;
        nFaces          0;
        startFace       3120;
    }
    front
    {
        type            symmetry;
        inGroups        1(symmetry);
        nFaces          1611;
        startFace       3120;
    }
    back
    {
        type            symmetry;
        inGroups        1(symmetry);
        nFaces          1611;
        startFace       4731;
    }
    wall
    {
        type            patch;
        nFaces          0;
        startFace       6342;
    }
    defaultFaces
    {
        type            empty;
        inGroups        1(empty);
        nFaces          21;
        startFace       6342;
    }
    procBoundary40to39
    {
        type            processor;
        inGroups        1(processor);
        nFaces          81;
        startFace       6363;
        matchTolerance  0.0001;
        transform       unknown;
        myProcNo        40;
        neighbProcNo    39;
    }
    procBoundary40to41
    {
        type            processor;
        inGroups        1(processor);
        nFaces          81;
        startFace       6444;
        matchTolerance  0.0001;
        transform       unknown;
        myProcNo        40;
        neighbProcNo    41;
    }
)

// ************************************************************************* //
