/*--------------------------------*- C++ -*----------------------------------*\
| =========                 |                                                 |
| \\      /  F ield         | OpenFOAM: The Open Source CFD Toolbox           |
|  \\    /   O peration     | Version:  2.3.0                                 |
|   \\  /    A nd           | Web:      www.OpenFOAM.org                      |
|    \\/     M anipulation  |                                                 |
\*---------------------------------------------------------------------------*/
FoamFile
{
    version     2.0;
    format      ascii;
    class       polyBoundaryMesh;
    location    "constant/polyMesh";
    object      boundary;
}
// * * * * * * * * * * * * * * * * * * * * * * * * * * * * * * * * * * * * * //

8
(
    waterInlet
    {
        type            patch;
        nFaces          7;
        startFace       3061;
    }
    oilInlet
    {
        type            patch;
        nFaces          9;
        startFace       3068;
    }
    mainReactorOutlet
    {
        type            patch;
        nFaces          0;
        startFace       3077;
    }
    front
    {
        type            symmetry;
        inGroups        1(symmetry);
        nFaces          1612;
        startFace       3077;
    }
    back
    {
        type            symmetry;
        inGroups        1(symmetry);
        nFaces          1612;
        startFace       4689;
    }
    wall
    {
        type            patch;
        nFaces          160;
        startFace       6301;
    }
    defaultFaces
    {
        type            empty;
        inGroups        1(empty);
        nFaces          13;
        startFace       6461;
    }
    procBoundary0to1
    {
        type            processor;
        inGroups        1(processor);
        nFaces          81;
        startFace       6474;
        matchTolerance  0.0001;
        transform       unknown;
        myProcNo        0;
        neighbProcNo    1;
    }
)

// ************************************************************************* //
